43

       H    4.321392273049   12.905023022707    8.260881305321
       C    4.603997000000   11.906922000000    8.561429000000
       H    5.196916000000   11.475232000000    7.746356000000
       H    3.713528000000   11.280372000000    8.648576000000
       C    5.377225000000   11.708676000000    9.846055000000
       H    5.566422000000   10.636751000000    9.946939000000
       H    4.751931000000   11.999557000000   10.695106000000
       C    6.708237000000   12.438252000000    9.861020000000
       H    6.612203000000   13.432808000000   10.298797000000
       H    7.034678000000   12.583726000000    8.834425000000
       N    7.796834000000   11.727925000000   10.500660000000
       H    8.568136000000   11.459571000000    9.887039000000
       C    8.052535000000   11.735250000000   11.794858000000
       N    7.106215000000   12.105980000000   12.677113000000
       H    6.147479000000   11.911970000000   12.456079000000
       H    7.381317000000   12.022398000000   13.647261000000
       N    9.243567000000   11.413005000000   12.239939000000
       H    9.423742000000   11.484159000000   13.236582000000
       H    9.992346000000   11.196193000000   11.595106000000
       C   13.089148000000   10.113083000000    9.248565000000
       H   13.606180000000   10.559965000000   10.098465000000
       H   13.574270000000   10.513439000000    8.359643000000
       C   11.678699000000   10.632979000000    9.374456000000
       C   10.732804000000   11.030708000000    8.198278000000
       O   11.168703000000   11.031002000000    7.029860000000
       O    9.580809000000   11.366751000000    8.505728000000
       O   11.224352000000   10.790016000000   10.476375000000
       C   11.200538000000    8.038988000000   10.834031000000
       H   10.648328000000    8.120364000000   11.758739000000
       C   12.489720000000    8.321003000000   10.785249000000
       H   13.028974000000    8.622910000000   11.668625000000
       C   13.202274000000    8.523513000000    9.487619000000
       C   12.546802000000    7.667853000000    8.427009000000
       H   13.177933000000    7.303732000000    7.623680000000
       C   11.278228000000    7.291535000000    8.495289000000
       H   10.836896000000    6.676733000000    7.718695000000
       C   10.389994000000    7.660388000000    9.635264000000
       H    9.770917000000    8.516453000000    9.328212000000
       O    9.544243000000    6.574432000000    9.924984000000
       H    8.853285000000    6.882920000000   10.597059000000
       C   14.730678000000    8.185646000000    9.555909000000
       O   15.294868000000    8.219006000000   10.679332000000
       O   15.303681000000    7.926582000000    8.491129000000
