43

       H    4.321655064076   12.904880682281    8.261024303656
       C    4.604547000000   11.906880000000    8.561635000000
       H    5.197200000000   11.475463000000    7.746237000000
       H    3.714061000000   11.280341000000    8.649095000000
       C    5.378571000000   11.708323000000    9.845899000000
       H    5.566462000000   10.636201000000    9.946877000000
       H    4.753953000000   11.999956000000   10.695256000000
       C    6.710885000000   12.435827000000    9.859999000000
       H    6.616526000000   13.429605000000   10.300056000000
       H    7.035367000000   12.583252000000    8.833028000000
       N    7.800830000000   11.723246000000   10.495540000000
       H    8.571316000000   11.457292000000    9.878046000000
       C    8.063803000000   11.737267000000   11.788033000000
       N    7.119503000000   12.107886000000   12.672880000000
       H    6.160832000000   11.912217000000   12.452752000000
       H    7.395380000000   12.022844000000   13.642792000000
       N    9.259906000000   11.425679000000   12.228722000000
       H    9.439047000000   11.489150000000   13.225852000000
       H    9.993796000000   11.159177000000   11.582995000000
       C   13.082549000000   10.225226000000    9.224106000000
       H   13.613975000000   10.591953000000   10.100556000000
       H   13.536291000000   10.683370000000    8.336528000000
       C   11.662605000000   10.625704000000    9.371235000000
       C   10.723969000000   11.032879000000    8.199457000000
       O   11.157175000000   11.028605000000    7.028491000000
       O    9.569452000000   11.366703000000    8.503051000000
       O   11.154382000000   10.599607000000   10.466124000000
       C   11.193627000000    8.092196000000   10.812546000000
       H   10.631331000000    8.232988000000   11.724696000000
       C   12.503155000000    8.294562000000   10.776946000000
       H   13.047663000000    8.595170000000   11.657400000000
       C   13.216537000000    8.433397000000    9.495041000000
       C   12.552405000000    7.596110000000    8.431320000000
       H   13.177649000000    7.225226000000    7.626243000000
       C   11.266007000000    7.277162000000    8.484622000000
       H   10.794199000000    6.709773000000    7.688779000000
       C   10.386902000000    7.670994000000    9.623837000000
       H    9.753283000000    8.505713000000    9.292439000000
       O    9.565559000000    6.577551000000    9.957618000000
       H    8.865479000000    6.892687000000   10.618547000000
       C   14.748891000000    8.146672000000    9.561263000000
       O   15.317347000000    8.207006000000   10.681976000000
       O   15.320439000000    7.891488000000    8.495404000000
