43

       H    4.321657106426   12.904823268615    8.261179110699
       C    4.604406000000   11.906827000000    8.561939000000
       H    5.197136000000   11.475461000000    7.746673000000
       H    3.713794000000   11.280439000000    8.649609000000
       C    5.378539000000   11.707879000000    9.846316000000
       H    5.564943000000   10.635537000000    9.947302000000
       H    4.754343000000   12.000417000000   10.695735000000
       C    6.711912000000   12.433351000000    9.859827000000
       H    6.619630000000   13.426886000000   10.300916000000
       H    7.036614000000   12.580843000000    8.833027000000
       N    7.802765000000   11.718940000000   10.492557000000
       H    8.571154000000   11.448523000000    9.867233000000
       C    8.071554000000   11.734272000000   11.780732000000
       N    7.131367000000   12.105429000000   12.670754000000
       H    6.170464000000   11.917086000000   12.451859000000
       H    7.405730000000   12.024893000000   13.641433000000
       N    9.274557000000   11.424479000000   12.217315000000
       H    9.450486000000   11.486609000000   13.215962000000
       H   10.001787000000   11.120928000000   11.578942000000
       C   12.971417000000   10.689934000000    9.230108000000
       H   13.604641000000   10.549593000000   10.090673000000
       H   13.456783000000   10.963405000000    8.304137000000
       C   11.651348000000   10.550141000000    9.326738000000
       C   10.715199000000   10.991277000000    8.218973000000
       O   11.137295000000   11.036634000000    7.037544000000
       O    9.555471000000   11.334453000000    8.525229000000
       O   11.056414000000   10.049825000000   10.453572000000
       C   11.146839000000    8.507527000000   10.687662000000
       H   10.637054000000    8.380074000000   11.643185000000
       C   12.593527000000    8.261983000000   10.754363000000
       H   13.108425000000    8.581130000000   11.645500000000
       C   13.272808000000    7.930575000000    9.658798000000
       C   12.565919000000    7.450986000000    8.473453000000
       H   13.176291000000    7.148356000000    7.632545000000
       C   11.246913000000    7.299333000000    8.464976000000
       H   10.753447000000    6.792085000000    7.644601000000
       C   10.373816000000    7.751567000000    9.590267000000
       H    9.677753000000    8.501328000000    9.208982000000
       O    9.661367000000    6.628879000000   10.046475000000
       H    8.899781000000    6.924841000000   10.646529000000
       C   14.783568000000    8.003028000000    9.611897000000
       O   15.393183000000    8.193904000000   10.696393000000
       O   15.323615000000    7.888607000000    8.503205000000
