43

       H    4.322313229953   12.904493853173    8.262865039294
       C    4.604990000000   11.907134000000    8.565796000000
       H    5.195811000000   11.472253000000    7.751094000000
       H    3.712712000000   11.283449000000    8.655290000000
       C    5.377230000000   11.703475000000    9.851327000000
       H    5.538488000000   10.627683000000    9.959150000000
       H    4.761095000000   12.013815000000   10.700303000000
       C    6.729807000000   12.393394000000    9.864665000000
       H    6.667179000000   13.389056000000   10.305520000000
       H    7.060974000000   12.530854000000    8.838220000000
       N    7.798873000000   11.646938000000   10.500820000000
       H    8.535843000000   11.320602000000    9.866198000000
       C    8.090979000000   11.682304000000   11.783092000000
       N    7.183177000000   12.114708000000   12.676185000000
       H    6.211489000000   11.964303000000   12.477830000000
       H    7.475649000000   12.062935000000   13.644549000000
       N    9.286736000000   11.333392000000   12.214866000000
       H    9.471444000000   11.401699000000   13.210791000000
       H    9.990383000000   10.976267000000   11.579214000000
       C   12.882805000000   10.811697000000    9.197445000000
       H   13.549950000000   10.610543000000   10.020257000000
       H   13.277423000000   11.270378000000    8.303255000000
       C   11.592979000000   10.522917000000    9.273582000000
       C   10.642756000000   10.939346000000    8.181718000000
       O   11.092168000000   11.049969000000    7.015255000000
       O    9.460289000000   11.187738000000    8.483026000000
       O   11.024238000000    9.960175000000   10.381713000000
       C   11.198732000000    8.519777000000   10.600523000000
       H   10.714434000000    8.356936000000   11.560927000000
       C   12.663049000000    8.254951000000   10.682062000000
       H   13.186953000000    8.646314000000   11.541895000000
       C   13.346773000000    7.733938000000    9.667484000000
       C   12.626387000000    7.231536000000    8.495055000000
       H   13.226145000000    6.857609000000    7.675601000000
       C   11.297456000000    7.227183000000    8.431904000000
       H   10.791739000000    6.823680000000    7.562799000000
       C   10.423849000000    7.719623000000    9.544459000000
       H    9.681209000000    8.411350000000    9.132791000000
       O    9.766728000000    6.607108000000   10.099790000000
       H    9.005424000000    6.919481000000   10.688358000000
       C   14.861943000000    7.827740000000    9.610616000000
       O   15.476821000000    8.170604000000   10.656959000000
       O   15.393343000000    7.624943000000    8.509543000000
