43

       H    4.850893220835   12.924978060495    7.689785237142
       C    5.342610000000   11.981000000000    7.872870000000
       H    5.829600000000   11.689700000000    6.936930000000
       H    4.594560000000   11.209900000000    8.077780000000
       C    6.365050000000   11.900400000000    8.987300000000
       H    5.863200000000   11.963600000000    9.956130000000
       H    7.059210000000   12.738100000000    8.921720000000
       C    7.113840000000   10.570900000000    8.897970000000
       H    7.851430000000   10.602400000000    8.100980000000
       H    6.411130000000    9.778880000000    8.645860000000
       N    7.748350000000   10.134400000000   10.134500000000
       H    7.529230000000    9.209770000000   10.505000000000
       C    8.667230000000   10.793200000000   10.821300000000
       N    9.209800000000   11.916100000000   10.323800000000
       H    9.486870000000   11.780700000000    9.343020000000
       H    9.976520000000   12.267200000000   10.874000000000
       N    9.004220000000   10.340100000000   12.019000000000
       H    9.673000000000   10.831000000000   12.598700000000
       H    8.651600000000    9.432330000000   12.294700000000
       C   13.405400000000   10.597500000000    9.133950000000
       H   13.918400000000   10.393600000000   10.062700000000
       H   13.953100000000   11.043900000000    8.318060000000
       C   12.123500000000   10.303500000000    8.983780000000
       C   11.395300000000   10.659800000000    7.701590000000
       O   12.029100000000   10.686900000000    6.643140000000
       O   10.160600000000   10.934000000000    7.837080000000
       O   11.381300000000    9.787680000000   10.016900000000
       C   11.269000000000    8.344330000000   10.160900000000
       H   10.876700000000    8.219880000000   11.168400000000
       C   12.636200000000    7.767670000000   10.058000000000
       H   13.331100000000    7.965670000000   10.859500000000
       C   13.082500000000    7.225950000000    8.930980000000
       C   12.158600000000    7.030840000000    7.812800000000
       H   12.585700000000    6.704530000000    6.875190000000
       C   10.852000000000    7.249340000000    7.930780000000
       H   10.196900000000    7.083000000000    7.083920000000
       C   10.228700000000    7.770170000000    9.188070000000
       H    9.583710000000    8.610870000000    8.920760000000
       O    9.449030000000    6.740250000000    9.775530000000
       H    8.879960000000    7.105470000000   10.501100000000
       C   14.572900000000    7.053340000000    8.722920000000
       O   15.303400000000    6.888440000000    9.722510000000
       O   14.964200000000    7.180140000000    7.537060000000
