43

       H    4.850785024931   12.930343404317    7.689153581832
       C    5.346875000000   11.988849000000    7.873227000000
       H    5.819416000000   11.687542000000    6.932952000000
       H    4.605872000000   11.217209000000    8.099422000000
       C    6.387927000000   11.929687000000    8.970271000000
       H    5.903392000000   12.005269000000    9.946901000000
       H    7.076033000000   12.770260000000    8.881272000000
       C    7.142186000000   10.604069000000    8.885225000000
       H    7.893288000000   10.643517000000    8.101065000000
       H    6.447021000000    9.810618000000    8.617760000000
       N    7.757050000000   10.165245000000   10.129262000000
       H    7.528600000000    9.240839000000   10.494676000000
       C    8.668175000000   10.820267000000   10.828490000000
       N    9.202618000000   11.957184000000   10.354554000000
       H    9.479552000000   11.850695000000    9.370338000000
       H    9.971162000000   12.296450000000   10.909736000000
       N    9.005293000000   10.347606000000   12.018910000000
       H    9.679327000000   10.828167000000   12.600948000000
       H    8.664186000000    9.429615000000   12.274657000000
       C   13.457840000000   10.352398000000    9.062162000000
       H   13.975371000000   10.046704000000    9.958741000000
       H   14.045425000000   10.677540000000    8.219092000000
       C   12.139666000000   10.273582000000    8.975284000000
       C   11.412808000000   10.703544000000    7.712502000000
       O   12.036388000000   10.706929000000    6.646544000000
       O   10.193142000000   11.036513000000    7.852948000000
       O   11.378169000000    9.826520000000   10.029519000000
       C   11.213613000000    8.373921000000   10.212983000000
       H   10.803516000000    8.278984000000   11.217068000000
       C   12.563032000000    7.771044000000   10.120625000000
       H   13.240747000000    7.885219000000   10.949348000000
       C   13.040533000000    7.370744000000    8.949099000000
       C   12.140184000000    7.276571000000    7.801285000000
       H   12.591380000000    7.077184000000    6.840171000000
       C   10.824357000000    7.413676000000    7.930697000000
       H   10.175107000000    7.260215000000    7.077521000000
       C   10.181271000000    7.848094000000    9.207679000000
       H    9.564715000000    8.718207000000    8.975953000000
       O    9.364630000000    6.807462000000    9.713057000000
       H    8.785814000000    7.146760000000   10.445894000000
       C   14.531491000000    7.194495000000    8.758563000000
       O   15.248522000000    7.082561000000    9.775839000000
       O   14.940851000000    7.252819000000    7.573715000000
