43

       H    4.321604641516   12.904682434133    8.261497896427
       C    4.604039000000   11.906719000000    8.562662000000
       H    5.197018000000   11.474818000000    7.747870000000
       H    3.713071000000   11.280819000000    8.649866000000
       C    5.376637000000   11.706400000000    9.847896000000
       H    5.559427000000   10.633471000000    9.949357000000
       H    4.753236000000   12.001138000000   10.697063000000
       C    6.712736000000   12.426594000000    9.862657000000
       H    6.625458000000   13.420485000000   10.303761000000
       H    7.039074000000   12.572748000000    8.836069000000
       N    7.800353000000   11.706817000000   10.495779000000
       H    8.557215000000   11.418310000000    9.865564000000
       C    8.077398000000   11.725245000000   11.781511000000
       N    7.146224000000   12.108009000000   12.674483000000
       H    6.182467000000   11.930457000000   12.459437000000
       H    7.424934000000   12.031224000000   13.644487000000
       N    9.281064000000   11.408136000000   12.214863000000
       H    9.459944000000   11.467883000000   13.212976000000
       H    9.995395000000   11.074187000000   11.579182000000
       C   12.920298000000   10.768127000000    9.222608000000
       H   13.570087000000   10.566386000000   10.058960000000
       H   13.352366000000   11.171203000000    8.318786000000
       C   11.618021000000   10.536411000000    9.296741000000
       C   10.679392000000   10.978642000000    8.202613000000
       O   11.115120000000   11.051171000000    7.028253000000
       O    9.513430000000   11.289693000000    8.512530000000
       O   11.026419000000    9.999400000000   10.408187000000
       C   11.162217000000    8.550081000000   10.636820000000
       H   10.662043000000    8.400879000000   11.591751000000
       C   12.619740000000    8.263571000000   10.728388000000
       H   13.139703000000    8.617864000000   11.605849000000
       C   13.306387000000    7.797997000000    9.689479000000
       C   12.591760000000    7.332441000000    8.500268000000
       H   13.195484000000    6.996597000000    7.667603000000
       C   11.263771000000    7.296766000000    8.445434000000
       H   10.760520000000    6.878500000000    7.581805000000
       C   10.388906000000    7.765293000000    9.566024000000
       H    9.652529000000    8.470959000000    9.167106000000
       O    9.725589000000    6.641091000000   10.087895000000
       H    8.958241000000    6.943223000000   10.674988000000
       C   14.818526000000    7.901803000000    9.637799000000
       O   15.433413000000    8.161238000000   10.706307000000
       O   15.349256000000    7.790397000000    8.523163000000
