72
 generated by VMD
 C         6.804402       12.131672        1.291206
 C         8.133853       11.532804        1.788925
 H         8.530019       12.129205        2.613080
 H         8.862917       11.566398        0.997638
 C         8.063838       10.082761        2.248532
 H         9.047976        9.795386        2.621377
 H         7.833200        9.449361        1.393551
 C         7.026999        9.838272        3.346300
 H         7.250492        8.863039        3.748459
 H         6.029185        9.812465        2.908551
 N         7.041617       10.830918        4.431957
 H         6.253088       11.460656        4.472271
 C         7.948193       10.926020        5.382847
 N         8.898223       10.055002        5.529489
 H         9.630415       10.257456        6.199930
 H         8.903185        9.179681        5.017593
 N         7.923905       11.915666        6.222014
 H         8.562813       11.840275        7.013524
 H         7.263753       12.671317        6.139966
 C         4.218357        7.358520       13.933517
 C         5.048747        8.548680       13.412566
 H         4.888961        9.399199       14.078073
 H         4.659140        8.827693       12.432537
 C         6.577227        8.333414       13.276974
 H         6.980334        8.185158       14.276892
 H         7.009192        9.258023       12.892117
 C         7.053045        7.150374       12.405731
 O         7.901062        7.366042       11.499011
 O         6.652071        6.004693       12.703634
 C         4.203063       13.327115        8.135226
 C         4.605095       11.906886        8.570693
 H         5.190507       11.466800        7.755212
 H         3.710039       11.287900        8.665492
 C         5.380588       11.699238        9.854755
 H         5.516676       10.620831        9.971529
 H         4.775081       12.028266       10.704389
 C         6.750721       12.355805        9.863295
 H         6.712143       13.353176       10.302544
 H         7.087132       12.482854        8.837069
 N         7.801394       11.584780       10.503722
 H         8.520358       11.224111        9.867439
 C         8.105987       11.636393       11.782797
 N         7.220458       12.116611       12.672554
 H         6.242412       11.998926       12.485304
 H         7.523348       12.086887       13.639547
 N         9.292053       11.256909       12.216979
 H         9.479849       11.335825       13.210993
 H         9.990700       10.886266       11.583156
 C        12.858063       10.838447        9.176954
 H        13.539520       10.651479        9.991436
 H        13.225067       11.327244        8.287276
 C        11.579931       10.502996        9.255571
 C        10.619130       10.894485        8.164412
 O        11.075613       11.043303        7.004633
 O         9.424143       11.083035        8.458443
 O        11.032207        9.919997       10.363050
 C        11.233455        8.483825       10.574462
 H        10.764467        8.310230       11.540306
 C        12.702308        8.239668       10.641575
 H        13.232769        8.657130       11.485180
 C        13.381706        7.692492        9.637747
 C        12.654999        7.156452        8.483143
 H        13.249903        6.754456        7.673199
 C        11.325520        7.157111        8.425029
 H        10.814299        6.743059        7.564186
 C        10.455286        7.670831        9.530873
 H         9.714263        8.357990        9.110074
 O         9.794085        6.569231       10.104579
 H         9.037608        6.890131       10.693839
 C        14.898536        7.779900        9.575956
 O        15.512356        8.187599       10.600813
 O        15.431911        7.503926        8.492276
