72
 generated by VMD
 C         6.687880       12.312300        0.734301
 C         8.039670       11.692700        1.153850
 H         8.538470       12.335000        1.879990
 H         8.688550       11.655200        0.282180
 C         7.960450       10.271300        1.740630
 H         8.978980        9.917640        1.910790
 H         7.495460        9.620260        1.003630
 C         7.177300       10.136700        3.057750
 H         7.329990        9.133750        3.455930
 H         6.112620       10.239900        2.847630
 N         7.566530       11.147200        4.056530
 H         7.230650       12.082700        3.914380
 C         8.315060       10.994600        5.131580
 N         8.868690        9.881500        5.507710
 H         9.494400        9.946520        6.305170
 H         8.857770        9.059890        4.925400
 N         8.555260       12.023800        5.877950
 H         9.228610       11.859400        6.625360
 H         8.448080       12.945100        5.484710
 C         4.128750        7.039030       13.678300
 C         4.829500        8.323520       13.190100
 H         4.450620        9.163880       13.768000
 H         4.555890        8.493290       12.148800
 C         6.363160        8.379190       13.299100
 H         6.661390        8.265960       14.342600
 H         6.669770        9.381740       12.997100
 C         7.104060        7.345550       12.437700
 O         7.881510        7.788600       11.547100
 O         6.950840        6.134970       12.699600
 C         4.643460       13.323200        7.612550
 C         5.342610       11.981000        7.872870
 H         5.829600       11.689700        6.936930
 H         4.594560       11.209900        8.077780
 C         6.365050       11.900400        8.987300
 H         5.863200       11.963600        9.956130
 H         7.059210       12.738100        8.921720
 C         7.113840       10.570900        8.897970
 H         7.851430       10.602400        8.100980
 H         6.411130        9.778880        8.645860
 N         7.748350       10.134400       10.134500
 H         7.529230        9.209770       10.505000
 C         8.667230       10.793200       10.821300
 N         9.209800       11.916100       10.323800
 H         9.486870       11.780700        9.343020
 H         9.976520       12.267200       10.874000
 N         9.004220       10.340100       12.019000
 H         9.673000       10.831000       12.598700
 H         8.651600        9.432330       12.294700
 C        13.405400       10.597500        9.133950
 H        13.918400       10.393600       10.062700
 H        13.953100       11.043900        8.318060
 C        12.123500       10.303500        8.983780
 C        11.395300       10.659800        7.701590
 O        12.029100       10.686900        6.643140
 O        10.160600       10.934000        7.837080
 O        11.381300        9.787680       10.016900
 C        11.269000        8.344330       10.160900
 H        10.876700        8.219880       11.168400
 C        12.636200        7.767670       10.058000
 H        13.331100        7.965670       10.859500
 C        13.082500        7.225950        8.930980
 C        12.158600        7.030840        7.812800
 H        12.585700        6.704530        6.875190
 C        10.852000        7.249340        7.930780
 H        10.196900        7.083000        7.083920
 C        10.228700        7.770170        9.188070
 H         9.583710        8.610870        8.920760
 O         9.449030        6.740250        9.775530
 H         8.879960        7.105470       10.501100
 C        14.572900        7.053340        8.722920
 O        15.303400        6.888440        9.722510
 O        14.964200        7.180140        7.537060
